project_wecc/WECC_WIND10.raw
0,   100.00, 33, 0, 1, 60.00     / PSS(R)E-33.5    SUN, JUN 05 2016  12:56
                               100.0

     1,'CORONADO    ', 500.0000,1,  10,  10,   1,0.98585, -42.2339,1.10000,0.90000,1.10000,0.90000
     2,'CHOLLA      ', 345.0000,1,  10,  10,   1,1.01546, -26.5813,1.10000,0.90000,1.10000,0.90000
     3,'CORONADO    ',  20.0000,1,  10,  10,   1,1.03271, -43.1632,1.10000,0.90000,1.10000,0.90000
     4,'CRAIG       ', 345.0000,1,  60,  70,   1,0.98728,  -2.4615,1.10000,0.90000,1.10000,0.90000
     5,'CRAIG       ',  20.0000,1,  60,  70,   1,0.98720,  -3.1893,1.10000,0.90000,1.10000,0.90000
     6,'FOURCORN    ', 500.0000,1,  10,  10,   1,1.12114, -23.0445,1.10000,0.90000,1.10000,0.90000
     7,'FOURCORN    ', 345.0000,1,  10,  10,   1,1.04290, -20.7001,1.10000,0.90000,1.10000,0.90000
     8,'FCNGN4CC    ',  20.0000,1,  10,  10,   1,1.04288, -21.0109,1.10000,0.90000,1.10000,0.90000
     9,'FOURCORN    ', 230.0000,1,  10,  10,   1,1.04108, -21.2088,1.10000,0.90000,1.10000,0.90000
    10,'HAYDEN      ',  20.0000,2,  10,  10,   1,1.00000,  14.7721,1.10000,0.90000,1.10000,0.90000
    11,'NAVAJO      ', 500.0000,1,  10,  10,   1,1.13811, -32.5739,1.10000,0.90000,1.10000,0.90000
    12,'NAVAJO 2    ',  20.0000,2,  10,  10,   1,1.05379, -32.9175,1.10000,0.90000,1.10000,0.90000
    13,'MOENKOPI    ', 500.0000,1,  10,  10,   1,1.14493, -33.4792,1.10000,0.90000,1.10000,0.90000
    14,'PALOVRD2    ',  20.0000,2,  10,  10,   1,1.03911, -30.5345,1.10000,0.90000,1.10000,0.90000
    15,'PALOVRDE    ', 500.0000,1,  10,  10,   1,1.12898, -37.3262,1.10000,0.90000,1.10000,0.90000
    16,'SAN JUAN    ', 345.0000,1,  10,  10,   1,1.05897, -19.8954,1.10000,0.90000,1.10000,0.90000
    17,'SJUAN G4    ',  20.0000,2,  10,  10,   1,1.01000, -17.0030,1.10000,0.90000,1.10000,0.90000
    18,'WESTWING    ', 500.0000,1,  10,  10,   1,1.13498, -37.3511,1.10000,0.90000,1.10000,0.90000
    19,'NAVAJO1     ', 500.0000,1,  10,  10,   1,1.12275, -31.5790,1.10000,0.90000,1.10000,0.90000
    20,'NAVAJO2     ', 500.0000,1,  10,  10,   1,1.15086, -34.4413,1.10000,0.90000,1.10000,0.90000
    21,'NAVAJO3     ', 500.0000,1,  10,  10,   1,1.10676, -31.0286,1.10000,0.90000,1.10000,0.90000
    22,'NAVAJO4     ', 500.0000,1,  10,  10,   1,1.10578, -38.8933,1.10000,0.90000,1.10000,0.90000
    23,'MOENKOPI    ', 500.0000,1,  10,  10,   1,1.13159, -32.2791,1.10000,0.90000,1.10000,0.90000
    24,'MOENKOP2    ', 500.0000,1,  10,  10,   1,1.11893, -38.5697,1.10000,0.90000,1.10000,0.90000
    25,'MOENKOP3    ', 500.0000,1,  10,  10,   1,1.13292, -26.8926,1.10000,0.90000,1.10000,0.90000
    26,'MOENKOP4    ', 500.0000,1,  10,  10,   1,1.02671, -47.2015,1.10000,0.90000,1.10000,0.90000
    27,'FOURCOR1    ', 500.0000,1,  10,  10,   1,1.10750, -21.5003,1.10000,0.90000,1.10000,0.90000
    28,'FOURCOR2    ', 500.0000,1,  10,  10,   1,1.11816, -37.5056,1.10000,0.90000,1.10000,0.90000
    29,'CANAD G1    ',  20.0000,2,  50,  50,   1,1.05527,  16.9435,1.10000,0.90000,1.10000,0.90000
    30,'CANADA      ', 500.0000,1,  50,  50,   1,1.09428,  13.5421,1.10000,0.90000,1.10000,0.90000
    31,'CANALB      ', 500.0000,1,  50,  50,   1,1.03934,  41.6058,1.10000,0.90000,1.10000,0.90000
    32,'CA230TO     ', 230.0000,1,  50,  50,   1,0.99845,  46.2749,1.10000,0.90000,1.10000,0.90000
    33,'CA230       ', 230.0000,1,  50,  50,   1,1.00373,  55.2191,1.10000,0.90000,1.10000,0.90000
    34,'CMAIN GM    ',  20.0000,2,  50,  50,   1,1.02000,  60.1275,1.10000,0.90000,1.10000,0.90000
    35,'BRIDGER2    ',  22.0000,2,  60,  63,   1,1.06125,  -5.6390,1.10000,0.90000,1.10000,0.90000
    36,'ADELANTO    ', 500.0000,1,  90,  90,   1,1.07489, -47.3578,1.10000,0.90000,1.10000,0.90000
    37,'ADELAN&1    ', 500.0000,1,  90,  90,   1,1.09499, -51.1813,1.10000,0.90000,1.10000,0.90000
    38,'CASTAIC     ', 230.0000,1,  26,  26,   1,1.04218, -52.1435,1.10000,0.90000,1.10000,0.90000
    39,'CASTAI4G    ',  20.0000,2,  26,  26,   1,1.02393, -50.8442,1.10000,0.90000,1.10000,0.90000
    40,'GLENDAL     ', 230.0000,1,  26,  26,   1,1.04403, -55.7695,1.10000,0.90000,1.10000,0.90000
    41,'HAYNES      ', 230.0000,1,  26,  26,   1,1.04564, -55.4888,1.10000,0.90000,1.10000,0.90000
    42,'HAYNES3G    ',  20.0000,2,  26,  26,   1,1.00496, -52.2356,1.10000,0.90000,1.10000,0.90000
    43,'INTERMT     ', 345.0000,1,  90,  90,   1,1.06424, -15.4168,1.10000,0.90000,1.10000,0.90000
    44,'INTERM1G    ',  20.0000,2,  90,  90,   1,1.06068, -10.8671,1.10000,0.90000,1.10000,0.90000
    45,'OLIVE       ', 230.0000,1,  26,  26,   1,1.04741, -52.4913,1.10000,0.90000,1.10000,0.90000
    46,'OWENS G     ',  20.0000,2,  26,  26,   1,1.01546, -52.0896,1.10000,0.90000,1.10000,0.90000
    47,'RINALDI     ', 230.0000,1,  26,  26,   1,1.04700, -52.6980,1.10000,0.90000,1.10000,0.90000
    48,'RINALDI     ', 500.0000,1,  26,  26,   1,1.08621, -50.4909,1.10000,0.90000,1.10000,0.90000
    49,'RIVER       ', 230.0000,1,  26,  26,   1,1.04068, -56.6538,1.10000,0.90000,1.10000,0.90000
    50,'STA B       ', 138.0000,1,  26,  26,   1,1.04939, -56.7281,1.10000,0.90000,1.10000,0.90000
    51,'STA B1      ', 287.0000,1,  26,  26,   1,1.05341, -55.5926,1.10000,0.90000,1.10000,0.90000
    52,'STA B2      ', 287.0000,1,  26,  26,   1,1.05341, -55.5926,1.10000,0.90000,1.10000,0.90000
    53,'STA BLD     ', 230.0000,1,  26,  26,   1,1.04423, -56.9200,1.10000,0.90000,1.10000,0.90000
    54,'STA E       ', 230.0000,1,  26,  26,   1,1.04186, -54.9152,1.10000,0.90000,1.10000,0.90000
    55,'STA E       ', 500.0000,1,  26,  26,   1,1.05947, -52.6305,1.10000,0.90000,1.10000,0.90000
    56,'STA F       ', 230.0000,1,  26,  26,   1,1.04186, -56.6904,1.10000,0.90000,1.10000,0.90000
    57,'STA G       ', 230.0000,1,  26,  26,   1,1.04189, -56.0063,1.10000,0.90000,1.10000,0.90000
    58,'STA J       ', 230.0000,1,  26,  26,   1,1.04400, -53.7449,1.10000,0.90000,1.10000,0.90000
    59,'SYLMARLA    ', 230.0000,1,  90,  90,   1,1.05066, -51.9961,1.10000,0.90000,1.10000,0.90000
    60,'SYLMAR S    ', 230.0000,1,  24,  24,   1,1.03187, -53.0533,1.10000,0.90000,1.10000,0.90000
    61,'VALLEY      ', 230.0000,1,  26,  26,   1,1.04365, -53.8803,1.10000,0.90000,1.10000,0.90000
    62,'VICTORVL    ', 287.0000,1,  26,  26,   1,1.06742, -49.6067,1.10000,0.90000,1.10000,0.90000
    63,'VICTORVL    ', 500.0000,1,  26,  26,   1,1.07293, -47.6788,1.10000,0.90000,1.10000,0.90000
    64,'MONTA G1    ',  20.0000,2,  60,  62,   1,1.08000,  42.0750,1.10000,0.90000,1.10000,0.90000
    65,'MONTANA     ', 500.0000,1,  60,  62,   1,1.13537,  34.9003,1.10000,0.90000,1.10000,0.90000
    66,'BIG EDDY    ', 115.0000,1,  40,  40,   1,1.03768, -18.6885,1.10000,0.90000,1.10000,0.90000
    67,'BIG EDDY    ', 230.0000,1,  40,  40,   1,1.03574, -16.1844,1.10000,0.90000,1.10000,0.90000
    68,'BIG EDDY    ', 500.0000,1,  40,  40,   1,1.07905, -14.8898,1.10000,0.90000,1.10000,0.90000
    69,'DALLES21    ',  20.0000,2,  40,  40,   1,1.03000,  -9.1940,1.10000,0.90000,1.10000,0.90000
    70,'CELILO      ', 230.0000,1,  90,  90,   1,1.03165, -16.7216,1.10000,0.90000,1.10000,0.90000
    71,'CELILOCA    ', 500.0000,1,  40,  40,   1,1.07769, -14.9968,1.10000,0.90000,1.10000,0.90000
    72,'COLSTRP     ', 500.0000,1,  60,  62,   1,1.10757,   2.9714,1.10000,0.90000,1.10000,0.90000
    73,'COULEE      ', 500.0000,1,  40,  41,   1,1.11362,  -4.3401,1.10000,0.90000,1.10000,0.90000
    74,'GARRISON    ', 500.0000,1,  60,  62,   1,1.09504, -18.2690,1.10000,0.90000,1.10000,0.90000
    75,'JOHN DAY    ', 500.0000,1,  40,  40,   1,1.10945, -12.8266,1.10000,0.90000,1.10000,0.90000
    76,'JOHN DAY    ',  20.0000,3,  40,  40,   1,1.04512,   0.0000,1.10000,0.90000,1.10000,0.90000
    77,'HANFORD     ', 500.0000,1,  40,  41,   1,1.13833,  -4.4081,1.10000,0.90000,1.10000,0.90000
    78,'NORTH G3    ',  20.0000,2,  40,  42,   1,1.06470,  18.3121,1.10000,0.90000,1.10000,0.90000
    79,'NORTH       ', 500.0000,1,  40,  42,   1,1.11383,   5.6423,1.10000,0.90000,1.10000,0.90000
    80,'BURNS       ', 500.0000,1,  40,  40,   1,1.10084, -22.9038,1.10000,0.90000,1.10000,0.90000
    81,'GRIZZLY     ', 500.0000,1,  40,  40,   1,1.11392, -20.1937,1.10000,0.90000,1.10000,0.90000
    82,'MALIN       ', 500.0000,1,  40,  40,   1,1.11632, -26.9978,1.10000,0.90000,1.10000,0.90000
    83,'MIDPOINT    ', 500.0000,1,  61,  61,   1,1.12060, -12.0012,1.10000,0.90000,1.10000,0.90000
    84,'MIDPOINT    ', 345.0000,1,  61,  61,   1,1.05309,  -9.2732,1.10000,0.90000,1.10000,0.90000
    85,'SUMMER L    ', 500.0000,1,  40,  40,   1,1.11212, -21.9030,1.10000,0.90000,1.10000,0.90000
    86,'GRIZZLY1    ', 500.0000,1,  40,  40,   1,1.12518, -22.5700,1.10000,0.90000,1.10000,0.90000
    87,'GRIZZLY2    ', 500.0000,1,  40,  40,   1,1.10782, -18.5459,1.10000,0.90000,1.10000,0.90000
    88,'MALIN1      ', 500.0000,1,  40,  40,   1,1.09753, -17.8081,1.10000,0.90000,1.10000,0.90000
    89,'MALIN2      ', 500.0000,1,  40,  40,   1,1.11750, -23.4695,1.10000,0.90000,1.10000,0.90000
    90,'GRIZZLY3    ', 500.0000,1,  40,  40,   1,1.13957, -25.2601,1.10000,0.90000,1.10000,0.90000
    91,'GRIZZLY4    ', 500.0000,1,  40,  40,   1,1.11569, -20.3077,1.10000,0.90000,1.10000,0.90000
    92,'GRIZZLY5    ', 500.0000,1,  40,  40,   1,1.12905, -25.9972,1.10000,0.90000,1.10000,0.90000
    93,'GRIZZLY6    ', 500.0000,1,  40,  40,   1,1.11927, -21.0408,1.10000,0.90000,1.10000,0.90000
    94,'GRIZZLY7    ', 500.0000,1,  40,  40,   1,1.13959, -25.5373,1.10000,0.90000,1.10000,0.90000
    95,'GRIZZLY8    ', 500.0000,1,  40,  40,   1,1.11540, -20.3096,1.10000,0.90000,1.10000,0.90000
    96,'GRIZZLY9    ', 500.0000,1,  40,  40,   1,1.12888, -26.3141,1.10000,0.90000,1.10000,0.90000
    97,'GRIZZLYA    ', 500.0000,1,  40,  40,   1,1.11864, -21.0812,1.10000,0.90000,1.10000,0.90000
    98,'BURNS1      ', 500.0000,1,  40,  40,   1,1.01621,  -1.9807,1.10000,0.90000,1.10000,0.90000
    99,'CORTINA     ', 230.0000,1,  39,  39,   1,1.02985, -37.0688,1.10000,0.90000,1.10000,0.90000
   100,'COTWDPGE    ', 230.0000,1,  39,  39,   1,1.12426, -33.5859,1.10000,0.90000,1.10000,0.90000
   101,'DIABLO      ', 500.0000,1,  38,  38,   1,1.09215, -49.9605,1.10000,0.90000,1.10000,0.90000
   102,'DIABLO1     ',  20.0000,2,  38,  38,   1,1.05077, -46.5421,1.10000,0.90000,1.10000,0.90000
   103,'GATES       ', 500.0000,1,  38,  38,   1,1.07468, -51.1460,1.10000,0.90000,1.10000,0.90000
   104,'GLENN       ', 230.0000,1,  39,  39,   1,1.01925, -36.4587,1.10000,0.90000,1.10000,0.90000
   105,'LOGAN CR    ', 230.0000,1,  39,  39,   1,1.11365, -37.4516,1.10000,0.90000,1.10000,0.90000
   106,'LOSBANOS    ', 500.0000,1,  39,  39,   1,1.06707, -53.1473,1.10000,0.90000,1.10000,0.90000
   107,'MIDWAY      ', 500.0000,1,  38,  38,   1,1.06956, -52.3993,1.10000,0.90000,1.10000,0.90000
   108,'MIDWAY      ', 230.0000,1,  38,  38,   1,1.13168, -55.2604,1.10000,0.90000,1.10000,0.90000
   109,'MOSSLAND    ', 500.0000,1,  39,  39,   1,1.06424, -53.4033,1.10000,0.90000,1.10000,0.90000
   110,'OLINDA      ', 500.0000,1,  80,  80,   1,1.10480, -34.7989,1.10000,0.90000,1.10000,0.90000
   111,'ROUND MT    ',  20.0000,2,  39,  39,   1,1.07075, -19.6205,1.10000,0.90000,1.10000,0.90000
   112,'ROUND MT    ', 230.0000,1,  39,  39,   1,1.15359, -28.9509,1.10000,0.90000,1.10000,0.90000
   113,'ROUND MT    ', 500.0000,1,  39,  39,   1,1.07478, -31.8345,1.10000,0.90000,1.10000,0.90000
   114,'TABLE MT    ', 500.0000,1,  39,  39,   1,1.05635, -34.0115,1.10000,0.90000,1.10000,0.90000
   115,'TEVATR      ',  20.0000,2,  39,  39,   1,1.01200, -38.0437,1.10000,0.90000,1.10000,0.90000
   116,'TEVATR      ', 200.0000,1,  39,  39,   1,1.07995, -42.3209,1.10000,0.90000,1.10000,0.90000
   117,'TEVATR2     ',  20.0000,2,  39,  39,   1,1.01200, -33.2826,1.10000,0.90000,1.10000,0.90000
   118,'TEVATR      ', 500.0000,1,  39,  39,   1,0.99083, -41.4571,1.10000,0.90000,1.10000,0.90000
   119,'OLINDA1     ', 500.0000,1,  80,  80,   1,1.11621, -28.4477,1.10000,0.90000,1.10000,0.90000
   120,'OLINDA2     ', 500.0000,1,  80,  80,   1,1.07778, -41.1184,1.10000,0.90000,1.10000,0.90000
   121,'OLINDA3     ', 500.0000,1,  80,  80,   1,1.09569, -34.5433,1.10000,0.90000,1.10000,0.90000
   122,'OLINDA4     ', 500.0000,1,  80,  80,   1,1.04104, -48.9047,1.10000,0.90000,1.10000,0.90000
   123,'ROUND1      ', 500.0000,1,  39,  39,   1,1.07980, -28.6412,1.10000,0.90000,1.10000,0.90000
   124,'ROUND2      ', 500.0000,1,  39,  39,   1,1.04599, -36.2310,1.10000,0.90000,1.10000,0.90000
   125,'ROUND3      ', 500.0000,1,  39,  39,   1,1.07980, -28.6412,1.10000,0.90000,1.10000,0.90000
   126,'ROUND4      ', 500.0000,1,  39,  39,   1,1.04599, -36.2310,1.10000,0.90000,1.10000,0.90000
   127,'TABLE1      ', 500.0000,1,  39,  39,   1,1.07100, -27.1609,1.10000,0.90000,1.10000,0.90000
   128,'TABLE2      ', 500.0000,1,  39,  39,   1,1.01667, -49.0173,1.10000,0.90000,1.10000,0.90000
   129,'TABLE3      ', 500.0000,1,  39,  39,   1,1.08324, -29.0191,1.10000,0.90000,1.10000,0.90000
   130,'TABLE4      ', 500.0000,1,  39,  39,   1,0.99964, -44.2982,1.10000,0.90000,1.10000,0.90000
   131,'TEVATR1     ', 500.0000,1,  39,  39,   1,1.01582, -39.0564,1.10000,0.90000,1.10000,0.90000
   132,'TEVATR2     ', 500.0000,1,  39,  39,   1,1.07606, -56.0650,1.10000,0.90000,1.10000,0.90000
   133,'TEVATR3     ', 500.0000,1,  39,  39,   1,1.10570, -36.7711,1.10000,0.90000,1.10000,0.90000
   134,'GATES1      ', 500.0000,1,  38,  38,   1,1.05209, -54.5780,1.10000,0.90000,1.10000,0.90000
   135,'DEVERS      ', 500.0000,1,  24,  24,   1,1.08817, -49.2269,1.10000,0.90000,1.10000,0.90000
   136,'EAGLROCK    ', 230.0000,1,  24,  24,   1,1.01440, -57.3979,1.10000,0.90000,1.10000,0.90000
   137,'ELDORADO    ',  20.0000,2,  24,  29,   1,1.02000, -32.6765,1.10000,0.90000,1.10000,0.90000
   138,'ELDORADO    ', 500.0000,1,  24,  29,   1,1.07959, -39.6100,1.10000,0.90000,1.10000,0.90000
   139,'LITEHIPE    ',  20.0000,2,  24,  24,   1,1.00900, -54.0271,1.10000,0.90000,1.10000,0.90000
   140,'LITEHIPE    ', 230.0000,1,  24,  24,   1,1.00200, -60.3054,1.10000,0.90000,1.10000,0.90000
   141,'LUGO        ', 500.0000,1,  24,  24,   1,1.06130, -51.0012,1.10000,0.90000,1.10000,0.90000
   142,'MESA CAL    ', 230.0000,1,  24,  24,   1,1.00340, -59.6119,1.10000,0.90000,1.10000,0.90000
   143,'MIRALOMA    ',  20.0000,2,  24,  24,   1,1.00900, -50.1226,1.10000,0.90000,1.10000,0.90000
   144,'MIRALOMA    ', 500.0000,1,  24,  24,   1,1.03290, -54.5666,1.10000,0.90000,1.10000,0.90000
   145,'MIRALOMA    ', 230.0000,1,  24,  24,   1,1.03064, -54.9861,1.10000,0.90000,1.10000,0.90000
   146,'MOHAVE      ', 500.0000,1,  24,  29,   1,1.08222, -35.5564,1.10000,0.90000,1.10000,0.90000
   147,'MOHAV1CC    ',  22.0000,2,  24,  24,   1,1.05000, -27.3305,1.10000,0.90000,1.10000,0.90000
   148,'PARDEE      ',  20.0000,2,  24,  24,   1,1.01000, -44.2968,1.10000,0.90000,1.10000,0.90000
   149,'PARDEE      ', 230.0000,1,  24,  24,   1,1.01309, -56.2935,1.10000,0.90000,1.10000,0.90000
   150,'SERRANO     ', 500.0000,1,  25,  25,   1,1.04612, -55.0310,1.10000,0.90000,1.10000,0.90000
   151,'VALLEY      ', 500.0000,1,  24,  24,   1,1.06659, -52.9726,1.10000,0.90000,1.10000,0.90000
   152,'VINCENT     ', 500.0000,1,  24,  24,   1,1.06930, -53.1233,1.10000,0.90000,1.10000,0.90000
   153,'VINCENT     ', 230.0000,1,  24,  24,   1,1.00158, -55.8852,1.10000,0.90000,1.10000,0.90000
   154,'CAMP WIL    ', 345.0000,1,  60,  65,   1,1.06608, -13.1359,1.10000,0.90000,1.10000,0.90000
   155,'BENLOMND    ', 345.0000,1,  60,  65,   1,1.08127, -12.5977,1.10000,0.90000,1.10000,0.90000
   156,'BENLOMND    ', 230.0000,1,  60,  65,   1,1.09050, -13.1274,1.10000,0.90000,1.10000,0.90000
   157,'EMERY       ', 345.0000,1,  60,  65,   1,1.03322,  -8.0294,1.10000,0.90000,1.10000,0.90000
   158,'EMERY       ',  20.0000,2,  60,  65,   1,1.02000,  -3.1080,1.10000,0.90000,1.10000,0.90000
   159,'MONA        ', 345.0000,1,  60,  65,   1,1.06710, -13.1063,1.10000,0.90000,1.10000,0.90000
   160,'NAUGHTON    ', 230.0000,1,  60,  63,   1,1.11047,  -9.1657,1.10000,0.90000,1.10000,0.90000
   161,'NAUGHT      ',  20.0000,2,  60,  63,   1,1.06159,  -6.6851,1.10000,0.90000,1.10000,0.90000
   162,'PINTO PS    ', 345.0000,1,  60,  65,   1,1.12422, -17.9494,1.10000,0.90000,1.10000,0.90000
   163,'PINTO       ', 345.0000,1,  60,  65,   1,1.15079, -16.6483,1.10000,0.90000,1.10000,0.90000
   164,'SPAN FRK    ', 345.0000,1,  60,  65,   1,1.05139, -12.4844,1.10000,0.90000,1.10000,0.90000
   165,'SIGURD      ', 345.0000,1,  60,  65,   1,1.05665, -12.5104,1.10000,0.90000,1.10000,0.90000
   166,'TERMINAL    ', 345.0000,1,  60,  65,   1,1.06577, -13.1773,1.10000,0.90000,1.10000,0.90000
   167,'MALIN3      ', 500.0000,1,  40,  40,   1,1.13963, -23.2604,1.10000,0.90000,1.10000,0.90000
   168,'MALIN4      ', 500.0000,1,  40,  40,   1,1.05064, -35.9999,1.10000,0.90000,1.10000,0.90000
   169,'MALIN5      ', 500.0000,1,  40,  40,   1,1.14388, -22.4792,1.10000,0.90000,1.10000,0.90000
   170,'MALIN6      ', 500.0000,1,  40,  40,   1,1.05204, -36.0381,1.10000,0.90000,1.10000,0.90000
   171,'MALIN7      ', 500.0000,1,  40,  40,   1,1.07403, -21.3118,1.10000,0.90000,1.10000,0.90000
   172,'MALIN8      ', 500.0000,1,  40,  40,   1,1.08883, -40.4052,1.10000,0.90000,1.10000,0.90000
   173,'MIDWAY1     ', 500.0000,1,  38,  38,   1,1.05791, -51.5820,1.10000,0.90000,1.10000,0.90000
   174,'MIDWAY2     ', 500.0000,1,  38,  38,   1,1.06167, -53.9364,1.10000,0.90000,1.10000,0.90000
   175,'MIDWAY3     ', 500.0000,1,  38,  38,   1,1.05765, -51.5692,1.10000,0.90000,1.10000,0.90000
   176,'MIDWAY4     ', 500.0000,1,  38,  38,   1,1.06180, -53.9410,1.10000,0.90000,1.10000,0.90000
   177,'MIDWAY5     ', 500.0000,1,  38,  38,   1,1.05750, -51.5336,1.10000,0.90000,1.10000,0.90000
   178,'MIDWAY6     ', 500.0000,1,  38,  38,   1,1.06416, -53.8949,1.10000,0.90000,1.10000,0.90000
   179,'BURNS2      ', 500.0000,1,  40,  40,   1,1.04473, -13.1744,1.10000,0.90000,1.10000,0.90000
   180,'ADDBUS1     ',  20.0000,2,  40,  40,   1,1.00000, -18.2690,1.10000,0.90000,1.10000,0.90000
   181,'ADDBUS2     ',  20.0000,2,  39,  39,   1,1.10850, -41.4552,1.10000,0.90000,1.10000,0.90000
   182,'WP1_B2_LV   ',  34.5000,1,  10,  10,   1,1.01916, -25.0089,1.10000,0.90000,1.10000,0.90000
   183,'WP1_B2_CL   ',  34.5000,1,  10,  10,   1,0.99993,  -7.7280,1.10000,0.90000,1.10000,0.90000
   184,'WTG_1_B2    ',   0.6000,2,  10,  10,   1,1.00000,  -6.5660,1.10000,0.90000,1.10000,0.90000
   185,'WP1_B7_LV   ',  34.5000,1,  10,  10,   1,1.03972, -19.1734,1.10000,0.90000,1.10000,0.90000
   186,'WP1_B7_CL   ',  34.5000,1,  10,  10,   1,0.99907,   6.4630,1.10000,0.90000,1.10000,0.90000
   187,'WTG_1_B7    ',   0.6000,2,  10,  10,   1,1.00000,   7.6343,1.10000,0.90000,1.10000,0.90000
   188,'WP2_B7_LV   ',  34.5000,1,  10,  10,   1,1.03093, -19.1480,1.10000,0.90000,1.10000,0.90000
   189,'WP2_B7_CL   ',  34.5000,1,  10,  10,   1,0.99868,   6.6185,1.10000,0.90000,1.10000,0.90000
   190,'WTG_2_B7    ',   0.6000,2,  10,  10,   1,1.00000,   7.7875,1.10000,0.90000,1.10000,0.90000
   191,'WP1_B4_LV   ',  34.5000,1,  10,  10,   1,0.98134,  -0.7914,1.10000,0.90000,1.10000,0.90000
   192,'WP1_B4_CL   ',  34.5000,1,  10,  10,   1,0.99669,  24.9895,1.10000,0.90000,1.10000,0.90000
   193,'WTG_1_B4    ',   0.6000,2,  10,  10,   1,1.00000,  26.1139,1.10000,0.90000,1.10000,0.90000
   194,'WP1_B11_LV  ',  34.5000,1,  10,  10,   1,1.13787, -31.2458,1.10000,0.90000,1.10000,0.90000
   195,'WP1_B11_CL  ',  34.5000,1,  10,  10,   1,1.05529, -15.0932,1.10000,0.90000,1.10000,0.90000
   196,'WTG_1_B11   ',   0.6000,2,  10,  10,   1,1.05100, -13.9569,1.10000,0.90000,1.10000,0.90000
   197,'WP2_B11_LV  ',  34.5000,1,  10,  10,   1,1.13787, -31.2458,1.10000,0.90000,1.10000,0.90000
   198,'WP2_B11_CL  ',  34.5000,1,  10,  10,   1,1.05529, -15.0932,1.10000,0.90000,1.10000,0.90000
   199,'WTG_2_B11   ',   0.6000,2,  10,  10,   1,1.05100, -13.9569,1.10000,0.90000,1.10000,0.90000
   12183,'NEXMEXIC    ', 345.0000,1,  10,  10,   1,1.03118, -11.5754
...
0 / END OF BUS DATA, BEGIN LOAD DATA
     1,'BL',1,  10,  10,  1750.000,   -56.000,     0.000,     0.000,     0.000,     0.000,   1,1,0
     3,'BL',1,  10,  10,   100.000,     0.000,     0.000,     0.000,     0.000,     0.000,   1,1,0
     4,'BL',1,  60,  70,  2350.000,  -127.000,     0.000,     0.000,     0.000,     0.000,   1,1,0
     5,'BL',1,  60,  70,   100.000,     0.000,     0.000,     0.000,     0.000,     0.000,   1,1,0
     7,'BL',1,  10,  10,   239.000,   -56.000,     0.000,     0.000,     0.000,     0.000,   1,1,0
     8,'BL',1,  10,  10,   100.000,     0.000,     0.000,     0.000,     0.000,     0.000,   1,1,0
     9,'BL',1,  10,  10,   139.700,    23.800,     0.000,     0.000,     0.000,     0.000,   1,1,0
    10,'BL',1,  10,  10,   100.000,     0.000,     0.000,     0.000,     0.000,     0.000,   1,1,0
    11,'BL',1,  10,  10,    90.000,    70.000,     0.000,     0.000,     0.000,     0.000,   1,1,0
    12,'BL',1,  10,  10,   100.000,     0.000,     0.000,     0.000,     0.000,     0.000,   1,1,0
    14,'BL',1,  10,  10,   100.000,     0.000,     0.000,     0.000,     0.000,     0.000,   1,1,0
    15,'BL',1,  10,  10,   793.400,   207.000,     0.000,     0.000,     0.000,     0.000,   1,1,0
    16,'BL',1,  10,  10,   840.000,     5.000,     0.000,     0.000,     0.000,     0.000,   1,1,0
    17,'BL',1,  10,  10,   100.000,     0.000,     0.000,     0.000,     0.000,     0.000,   1,1,0
    18,'BL',1,  10,  10,   617.000,   -69.000,     0.000,     0.000,     0.000,     0.000,   1,1,0
    29,'BL',1,  50,  50,   100.000,     0.000,     0.000,     0.000,     0.000,     0.000,   1,1,0
    30,'BL',1,  50,  50,  4400.000,  1000.000,     0.000,     0.000,     0.000,     0.000,   1,1,0
    33,'BL',1,  50,  50,  3600.000,   700.000,     0.000,     0.000,     0.000,     0.000,   1,1,0
    34,'BL',1,  50,  50,   100.000,     0.000,     0.000,     0.000,     0.000,     0.000,   1,1,0
    35,'BL',1,  60,  63,   100.000,     0.000,     0.000,     0.000,     0.000,     0.000,   1,1,0
    36,'BL',1,  90,  90, -1862.000,   971.000,     0.000,     0.000,     0.000,     0.000,   1,1,0
    39,'BL',1,  26,  26,   100.000,     0.000,     0.000,     0.000,     0.000,     0.000,   1,1,0
    40,'BL',1,  26,  26,   135.000,    27.000,     0.000,     0.000,     0.000,     0.000,   1,1,0
    42,'BL',1,  26,  26,   100.000,     0.000,     0.000,     0.000,     0.000,     0.000,   1,1,0
    43,'BL',1,  90,  90,  2053.000,   907.100,     0.000,     0.000,     0.000,     0.000,   1,1,0
    44,'BL',1,  90,  90,   100.000,     0.000,     0.000,     0.000,     0.000,     0.000,   1,1,0
    45,'BL',1,  26,  26,   -72.800,   -17.000,     0.000,     0.000,     0.000,     0.000,   1,1,0
    46,'BL',1,  26,  26,   100.000,     0.000,     0.000,     0.000,     0.000,     0.000,   1,1,0
    47,'BL',1,  26,  26,   121.000,    25.000,     0.000,     0.000,     0.000,     0.000,   1,1,0
    49,'BL',1,  26,  26,   320.000,    65.000,     0.000,     0.000,     0.000,     0.000,   1,1,0
    50,'BL',1,  26,  26,   237.200,   -63.200,     0.000,     0.000,     0.000,     0.000,   1,1,0
    53,'BL',1,  26,  26,   138.000,    28.000,     0.000,     0.000,     0.000,     0.000,   1,1,0
    54,'BL',1,  26,  26,   807.800,   132.100,     0.000,     0.000,     0.000,     0.000,   1,1,0
    56,'BL',1,  26,  26,   117.000,    24.000,     0.000,     0.000,     0.000,     0.000,   1,1,0
    57,'BL',1,  26,  26,   121.000,    25.000,     0.000,     0.000,     0.000,     0.000,   1,1,0
    58,'BL',1,  26,  26,   887.700,    -6.200,     0.000,     0.000,     0.000,     0.000,   1,1,0
    59,'BL',1,  90,  90, -2771.000,  1654.000,     0.000,     0.000,     0.000,     0.000,   1,1,0
    60,'BL',1,  24,  24,   401.000,    80.600,     0.000,     0.000,     0.000,     0.000,   1,1,0
    61,'BL',1,  26,  26,   205.200,    17.600,     0.000,     0.000,     0.000,     0.000,   1,1,0
    62,'BL',1,  26,  26,  -129.000,    32.200,     0.000,     0.000,     0.000,     0.000,   1,1,0
    64,'BL',1,  60,  62,   100.000,     0.000,     0.000,     0.000,     0.000,     0.000,   1,1,0
    65,'BL',1,  60,  62,  1700.000,   300.000,     0.000,     0.000,     0.000,     0.000,   1,1,0
    66,'BL',1,  40,  40,   160.000,    31.250,     0.000,     0.000,     0.000,     0.000,   1,1,0
    67,'BL',1,  40,  40,   -67.500,   160.000,     0.000,     0.000,     0.000,     0.000,   1,1,0
    68,'BL',1,  40,  40,   -44.200,    22.000,     0.000,     0.000,     0.000,     0.000,   1,1,0
    69,'BL',1,  40,  40,   100.000,     0.000,     0.000,     0.000,     0.000,     0.000,   1,1,0
    70,'BL',1,  90,  90,  3137.000,  1681.000,     0.000,     0.000,     0.000,     0.000,   1,1,0
    72,'BL',1,  60,  62, -1525.000,   -50.000,     0.000,     0.000,     0.000,     0.000,   1,1,0
    74,'BL',1,  60,  62,  2584.000,   394.000,     0.000,     0.000,     0.000,     0.000,   1,1,0
    75,'BL',1,  40,  40,  3200.000,  1100.000,     0.000,     0.000,     0.000,     0.000,   1,1,0
    76,'BL',1,  40,  40,   100.000,     0.000,     0.000,     0.000,     0.000,     0.000,   1,1,0
    77,'BL',1,  40,  41,  3500.000,   500.000,     0.000,     0.000,     0.000,     0.000,   1,1,0
    78,'BL',1,  40,  42,   100.000,     0.000,     0.000,     0.000,     0.000,     0.000,   1,1,0
    79,'BL',1,  40,  42,  5000.000,   400.000,     0.000,     0.000,     0.000,     0.000,   1,1,0
    81,'BL',1,  40,  40,   -66.600,   -97.000,     0.000,     0.000,     0.000,     0.000,   1,1,0
    82,'BL',1,  40,  40,  -339.000,  -119.000,     0.000,     0.000,     0.000,     0.000,   1,1,0
    84,'BL',1,  61,  61,   610.000,  -414.000,     0.000,     0.000,     0.000,     0.000,   1,1,0
    99,'BL',1,  39,  39,   -43.300,    20.000,     0.000,     0.000,     0.000,     0.000,   1,1,0
   100,'BL',1,  39,  39,   210.400,   -77.000,     0.000,     0.000,     0.000,     0.000,   1,1,0
   101,'BL',1,  38,  38,    50.000,    25.000,     0.000,     0.000,     0.000,     0.000,   1,1,0
   102,'BL',1,  38,  38,   100.000,     0.000,     0.000,     0.000,     0.000,     0.000,   1,1,0
   103,'BL',1,  38,  38,   305.000,    -7.600,     0.000,     0.000,     0.000,     0.000,   1,1,0
   104,'BL',1,  39,  39,    27.500,    -0.100,     0.000,     0.000,     0.000,     0.000,   1,1,0
   105,'BL',1,  39,  39,     8.010,     0.000,     0.000,     0.000,     0.000,     0.000,   1,1,0
   106,'BL',1,  39,  39,   265.000,    14.000,     0.000,     0.000,     0.000,     0.000,   1,1,0
   107,'BL',1,  38,  38,    55.600,  -329.000,     0.000,     0.000,     0.000,     0.000,   1,1,0
   108,'BL',1,  38,  38,   777.600,    32.600,     0.000,     0.000,     0.000,     0.000,   1,1,0
   109,'BL',1,  39,  39,    40.000,    21.500,     0.000,     0.000,     0.000,     0.000,   1,1,0
   110,'BL',1,  80,  80,  -189.000,    61.500,     0.000,     0.000,     0.000,     0.000,   1,1,0
   111,'BL',1,  39,  39,   100.000,     0.000,     0.000,     0.000,     0.000,     0.000,   1,1,0
   112,'BL',1,  39,  39,   148.000,     0.000,     0.000,     0.000,     0.000,     0.000,   1,1,0
   114,'BL',1,  39,  39,    -0.700,   118.500,     0.000,     0.000,     0.000,     0.000,   1,1,0
   115,'BL',1,  39,  39,   100.000,     0.000,     0.000,     0.000,     0.000,     0.000,   1,1,0
   116,'BL',1,  39,  39,   884.000,    54.800,     0.000,     0.000,     0.000,     0.000,   1,1,0
   117,'BL',1,  39,  39,   100.000,     0.000,     0.000,     0.000,     0.000,     0.000,   1,1,0
   118,'BL',1,  39,  39,  5761.000,  3491.000,     0.000,     0.000,     0.000,     0.000,   1,1,0
   135,'BL',1,  24,  24,   856.000,    19.600,     0.000,     0.000,     0.000,     0.000,   1,1,0
   136,'BL',1,  24,  24,   175.000,    18.000,     0.000,     0.000,     0.000,     0.000,   1,1,0
   137,'BL',1,  24,  29,   100.000,     0.000,     0.000,     0.000,     0.000,     0.000,   1,1,0
   138,'BL',1,  24,  29,   902.300,   -11.400,     0.000,     0.000,     0.000,     0.000,   1,1,0
   139,'BL',1,  24,  24,   100.000,     0.000,     0.000,     0.000,     0.000,     0.000,   1,1,0
   140,'BL',1,  24,  24,  3191.000,   630.000,     0.000,     0.000,     0.000,     0.000,   1,1,0
   141,'BL',1,  24,  24,   204.200,   -28.200,     0.000,     0.000,     0.000,     0.000,   1,1,0
   142,'BL',1,  24,  24,   377.400,    64.500,     0.000,     0.000,     0.000,     0.000,   1,1,0
   143,'BL',1,  24,  24,   100.000,     0.000,     0.000,     0.000,     0.000,     0.000,   1,1,0
   144,'BL',1,  24,  24,  3098.000,  1189.000,     0.000,     0.000,     0.000,     0.000,   1,1,0
   147,'BL',1,  24,  24,   100.000,     0.000,     0.000,     0.000,     0.000,     0.000,   1,1,0
   148,'BL',1,  24,  24,   100.000,     0.000,     0.000,     0.000,     0.000,     0.000,   1,1,0
   149,'BL',1,  24,  24,  3118.000,    78.000,     0.000,     0.000,     0.000,     0.000,   1,1,0
   150,'BL',1,  25,  25,  1230.000,    72.800,     0.000,     0.000,     0.000,     0.000,   1,1,0
   151,'BL',1,  24,  24,   406.000,    41.000,     0.000,     0.000,     0.000,     0.000,   1,1,0
   153,'BL',1,  24,  24,  1066.000,   -10.800,     0.000,     0.000,     0.000,     0.000,   1,1,0
   154,'BL',1,  60,  65,   457.700,    81.700,     0.000,     0.000,     0.000,     0.000,   1,1,0
   155,'BL',1,  60,  65,    33.900,    11.900,     0.000,     0.000,     0.000,     0.000,   1,1,0
   156,'BL',1,  60,  65,   148.000,    -7.900,     0.000,     0.000,     0.000,     0.000,   1,1,0
   157,'BL',1,  60,  65,   116.100,    38.400,     0.000,     0.000,     0.000,     0.000,   1,1,0
   158,'BL',1,  60,  65,   100.000,     0.000,     0.000,     0.000,     0.000,     0.000,   1,1,0
   159,'BL',1,  60,  65,   -62.000,    12.800,     0.000,     0.000,     0.000,     0.000,   1,1,0
   160,'BL',1,  60,  63,   255.000,   100.000,     0.000,     0.000,     0.000,     0.000,   1,1,0
   161,'BL',1,  60,  63,   100.000,     0.000,     0.000,     0.000,     0.000,     0.000,   1,1,0
   163,'BL',1,  60,  65,    31.600,    11.500,     0.000,     0.000,     0.000,     0.000,   1,1,0
   164,'BL',1,  60,  65,   141.200,    71.400,     0.000,     0.000,     0.000,     0.000,   1,1,0
   165,'BL',1,  60,  65,   379.000,   -43.000,     0.000,     0.000,     0.000,     0.000,   1,1,0
   166,'BL',1,  60,  65,   185.000,    78.500,     0.000,     0.000,     0.000,     0.000,   1,1,0
0 / END OF LOAD DATA, BEGIN FIXED SHUNT DATA
   12185,'1 ',1,     0.000,   150.000
     6,'1 ',1,     0.000,  -113.000
     7,'1 ',1,     0.000,  -155.000
    11,'1 ',1,     0.000,  -190.000
    13,'1 ',1,     0.000,  -391.000
    15,'1 ',1,     0.000,  -146.000
    16,'1 ',1,     0.000,   390.000
    18,'1 ',1,     0.000,  -427.000
    25,'1 ',1,     0.000,   100.000
    31,'1 ',1,     0.000,  -600.000
    32,'1 ',1,     0.000,   600.000
    36,'1 ',1,     0.000,   912.000
    40,'1 ',1,     0.000,   100.000
    43,'1 ',1,     0.000,   430.000
    48,'1 ',1,     0.000,   -80.000
    59,'1 ',1,     0.000,  2146.000
    62,'1 ',1,     0.000,  -108.000
    64,'1 ',1,     0.000,  1000.000
    65,'1 ',1,     0.000,  -200.000
    67,'1 ',1,     0.000,   100.000
    69,'1 ',1,     0.000,   500.000
    70,'1 ',1,     0.000,   100.000
    71,'1 ',1,     0.000,   100.000
    72,'1 ',1,     0.000, -1250.000
    73,'1 ',1,     0.000,  -200.000
    74,'1 ',1,     0.000,   850.000
    75,'1 ',1,     0.000,  1200.000
    77,'1 ',1,     0.000,  1500.000
    79,'1 ',1,     0.000,   100.000
    80,'1 ',1,     0.000,  -220.000
    81,'1 ',1,     0.000,  -674.000
    82,'1 ',1,     0.000,   200.000
    83,'1 ',1,     0.000,  -220.000
    84,'1 ',1,     0.000,  -870.000
    99,'1 ',1,     0.000,  -100.000
   103,'1 ',1,     0.000,   -91.000
   104,'1 ',1,     0.000,  -150.000
   107,'1 ',1,     0.000,  -327.000
   108,'1 ',1,     0.000,  -600.000
   110,'1 ',1,     0.000,  -100.000
   111,'1 ',1,     0.000,  -625.000
   112,'1 ',1,     0.000,  -125.000
   113,'1 ',1,     0.000,   -91.000
   114,'1 ',1,     0.000,   -91.000
   115,'1 ',1,     0.000,   200.000
   116,'1 ',1,     0.000,  -232.000
   117,'1 ',1,     0.000,   500.000
   118,'1 ',1,     0.000,  4500.000
   122,'1 ',1,     0.000,  -700.000
   128,'1 ',1,     0.000,  -300.000
   130,'1 ',1,     0.000,  -500.000
   131,'1 ',1,     0.000,  -500.000
   133,'1 ',1,     0.000,  -900.000
   137,'1 ',1,     0.000,   -50.000
   138,'1 ',1,     0.000,  -319.000
   144,'1 ',1,     0.000,   400.000
   146,'1 ',1,     0.000,  -196.000
   153,'1 ',1,     0.000,  -190.000
   154,'1 ',1,     0.000,   -60.000
   157,'1 ',1,     0.000,  -220.000
   163,'1 ',1,     0.000,   200.000
   165,'1 ',1,     0.000,   -50.000
   171,'1 ',1,     0.000,   300.000
   172,'1 ',1,     0.000,   200.000
   179,'1 ',1,     0.000,  -220.000
   182,'1 ',1,     0.000,   400.000
   185,'1 ',1,     0.000,   400.000
   188,'1 ',1,     0.000,   100.000
   191,'1 ',1,     0.000,   200.000
   194,'1 ',1,     0.000,   400.000
   197,'1 ',1,     0.000,   400.000
0 / END OF FIXED SHUNT DATA, BEGIN GENERATOR DATA
     3,'1 ',   800.000,  -132.081,   300.000,  -300.000,1.01150,     0,  1462.000, 0.00000E+0, 1.95000E-1, 0.00000E+0, 0.00000E+0,1.00000,0,  100.0,  1388.900,     0.000,   1,1.0000
     5,'1 ',  1048.000,    82.410,   400.000,  -400.000,1.01710,     0,  1488.000, 0.00000E+0, 1.90000E-1, 0.00000E+0, 0.00000E+0,1.00000,0,  100.0,  1413.600,     0.000,   1,1.0000
     8,'1 ',  2160.000,  -385.214,   700.000,  -500.000,1.01940,     0,  2458.000, 0.00000E+0, 2.05000E-1, 0.00000E+0, 0.00000E+0,1.00000,0,  100.0,  2335.100,     0.000,   1,1.0000
    10,'1 ',  2050.000,   380.289,   900.000,  -900.000,1.00000,     0,  3000.000, 0.00000E+0, 1.90000E-1, 0.00000E+0, 0.00000E+0,1.00000,1,  100.0,  2850.000,     0.000,   1,1.0000
    12,'1 ',  1690.000,   517.702,   700.000,  -280.000,1.08081,     0,  3540.000, 0.00000E+0, 1.75000E-1, 0.00000E+0, 0.00000E+0,1.00000,0,  100.0,  3363.000,     0.000,   1,1.0000
    14,'1 ',  2640.000,   506.416,  1300.000,  -900.000,1.03911,     0,  3117.000, 0.00000E+0, 2.85000E-1, 0.00000E+0, 0.00000E+0,1.00000,1,  100.0,  2961.150,     0.000,   1,1.0000
    17,'1 ',   962.000,   -59.460,  1300.000, -1300.000,1.01000,     0,  2054.000, 0.00000E+0, 2.05000E-1, 0.00000E+0, 0.00000E+0,1.00000,1,  100.0,  1951.300,     0.000,   1,1.0000
    29,'1 ',  4450.000,  1050.671,  4000.000, -4000.000,1.05527,     0, 10578.000, 0.00000E+0, 1.50000E-1, 0.00000E+0, 0.00000E+0,1.00000,1,  100.0, 10049.100,     0.000,   1,1.0000
    34,'1 ',  4480.000,  1017.500,  5320.000, -3500.000,1.02000,     0,  6698.039, 0.00000E+0, 2.50000E-1, 0.00000E+0, 0.00000E+0,1.00000,1,  100.0,  6363.138,     0.000,   1,1.0000
    35,'1 ',  1640.000,   237.182,   600.000,  -525.000,1.06125,     0,  2166.000, 0.00000E+0, 2.15000E-1, 0.00000E+0, 0.00000E+0,1.00000,1,  100.0,  2057.700,     0.000,   1,1.0000
    39,'1 ',   200.000,   -79.461,   268.000,  -134.000,1.02393,     0,   500.000, 0.00000E+0, 1.00000E-1, 0.00000E+0, 0.00000E+0,1.00000,1,  100.0,   475.000,     0.000,   1,1.0000
    42,'1 ',   325.000,    33.973,   300.000,  -220.000,1.00496,     0,   540.000, 0.00000E+0, 1.00000E-1, 0.00000E+0, 0.00000E+0,1.00000,1,  100.0,   513.000,     0.000,   1,1.0000
    44,'1 ',  1780.000,   523.592,   850.000,  -440.000,1.06068,     0,  1982.000, 0.00000E+0, 1.00000E-1, 0.00000E+0, 0.00000E+0,1.00000,1,  100.0,  1882.900,     0.000,   1,1.0000
    46,'1 ',   110.000,    13.975,   100.000,  -100.000,1.01546,     0,   113.000, 0.00000E+0, 1.00000E-1, 0.00000E+0, 0.00000E+0,1.00000,1,  100.0,   107.350,     0.000,   1,1.0000
    64,'1 ',  2910.000,  -161.218,  1500.340, -1000.000,1.08000,     0,  4830.000, 0.00000E+0, 2.30790E-1, 0.00000E+0, 0.00000E+0,1.00000,1,  100.0,  4588.500,     0.000,   1,1.0000
    69,'1 ',  1301.000,   -65.261,   692.000,  -711.000,1.03000,     0,  2822.000, 0.00000E+0, 4.78700E-1, 0.00000E+0, 0.00000E+0,1.00000,1,  100.0,  2680.900,     0.000,   1,1.0000
    76,'1 ',  6353.397,  1661.984,  2649.000, -1850.000,1.04512,     0, 10522.000, 0.00000E+0, 3.20240E-1, 0.00000E+0, 0.00000E+0,1.00000,1,  100.0,  9995.900,     0.000,   1,1.0000
    78,'1 ',  9860.000,  1928.262,  5780.000, -2000.000,1.06470,     0, 14469.000, 0.00000E+0, 1.61000E-1, 0.00000E+0, 0.00000E+0,1.00000,1,  100.0, 13745.551,     0.000,   1,1.0000
   102,'1 ',   765.000,   133.745,   330.000,  -310.000,1.05077,     0,  1685.000, 0.00000E+0, 3.11000E-1, 0.00000E+0, 0.00000E+0,1.00000,1,  100.0,  1600.750,     0.000,   1,1.0000
   111,'1 ',  1057.000,   864.061,  1500.000, -1000.000,1.07075,     0,  2000.000, 0.00000E+0, 5.14680E-1, 0.00000E+0, 0.00000E+0,1.00000,1,  100.0,  1900.000,     0.000,   1,1.0000
   115,'1 ',   594.000,    17.486,   300.000,  -300.000,1.01200,     0,   895.000, 0.00000E+0, 3.00000E-1, 0.00000E+0, 0.00000E+0,1.00000,1,  100.0,   850.250,     0.000,   1,1.0000
   117,'1 ',  3467.000,  1636.649,  2500.000, -1000.000,1.01200,     0,  7913.000, 0.00000E+0, 1.90000E-1, 0.00000E+0, 0.00000E+0,1.00000,1,  100.0,  7517.350,    65.700,   1,1.0000
   137,'1 ',   982.700,  -270.348,   300.000,  -300.000,1.02000,     0,  2104.000, 0.00000E+0, 3.00000E-1, 0.00000E+0, 0.00000E+0,1.00000,1,  100.0,  1998.800,     0.000,   1,1.0000
   139,'1 ',  3195.000,   987.841,  2000.000,  -900.000,1.00900,     0, 10871.000, 0.00000E+0, 1.00000E-1, 0.00000E+0, 0.00000E+0,1.00000,1,  100.0, 10327.450,     0.000,   1,1.0000
   143,'1 ',  1690.000,   -93.404,  1000.000, -1400.000,1.00900,     0,  3000.000, 0.00000E+0, 2.90000E-1, 0.00000E+0, 0.00000E+0,1.00000,1,  100.0,  2850.000,     0.000,   1,1.0000
   147,'1 ',  1680.000,   320.545,   700.000,  -300.000,1.05000,     0,  3393.600, 0.00000E+0, 2.05000E-1, 0.00000E+0, 0.00000E+0,1.00000,1,  100.0,  3223.920,     0.000,   1,1.0000
   148,'1 ',  2200.000,   321.481,   600.000,  -600.000,1.01000,     0,  2500.000, 0.00000E+0, 1.00000E-1, 0.00000E+0, 0.00000E+0,1.00000,1,  100.0,  2375.000,     0.000,   1,1.0000
   158,'1 ',  1665.000,  -485.861,   500.000,  -500.000,1.02000,     0,  2229.000, 0.00000E+0, 1.85000E-1, 0.00000E+0, 0.00000E+0,1.00000,1,  100.0,  2117.550,     0.000,   1,1.0000
   161,'1 ',   445.000,    91.439,   115.000,  -100.000,1.06159,     0,   832.000, 0.00000E+0, 2.60000E-1, 0.00000E+0, 0.00000E+0,1.00000,1,  100.0,   790.400,     0.000,   1,1.0000
   180,'1 ',     0.000,   655.314,  1000.000, -1000.000,1.00000,     0,  2000.000, 0.00000E+0, 1.00000E-1, 0.00000E+0, 0.00000E+0,1.00000,1,  100.0,  1900.000,     0.000,   1,1.0000
   181,'1 ',     0.000,  -163.701,  1500.000, -1500.000,1.10850,     0,  2000.000, 0.00000E+0, 1.00000E-1, 0.00000E+0, 0.00000E+0,1.00000,1,  100.0,  1900.000,     0.000,   1,1.0000
   184,'1 ',   800.000,   -89.150,   262.947,  -262.947,1.00000,     0,  2227.780, 0.00000E+0, 8.00000E-1, 0.00000E+0, 0.00000E+0,1.00000,1,  100.0,  2001.000,     0.000,   1,1.0000,    ,      ,    ,      ,    ,      ,2, 0.9500
   187,'1 ',  1080.000,   -74.132,   354.979,  -354.979,1.00000,     0,  2672.000, 0.00000E+0, 8.00000E-1, 0.00000E+0, 0.00000E+0,1.00000,1,  100.0,  2400.000,     0.000,   1,1.0000,    ,      ,    ,      ,    ,      ,2, 0.9500
   190,'1 ',  1080.000,   -53.403,   354.979,  -354.979,1.00000,     0,  2672.000, 0.00000E+0, 8.00000E-1, 0.00000E+0, 0.00000E+0,1.00000,1,  100.0,  2400.000,     0.000,   1,1.0000,    ,      ,    ,      ,    ,      ,2, 0.9500
   193,'1 ',  1050.000,    55.647,   345.118,  -345.118,1.00000,     0,  2672.000, 0.00000E+0, 8.00000E-1, 0.00000E+0, 0.00000E+0,1.00000,1,  100.0,  2400.000,     0.000,   1,1.0000,    ,      ,    ,      ,    ,      ,2, 0.9500
   196,'1 ',   845.000,  -277.738,   277.738,  -277.738,1.00000,     0,  2004.000, 0.00000E+0, 8.00000E-1, 0.00000E+0, 0.00000E+0,1.00000,1,  100.0,  1800.000,     0.000,   1,1.0000,    ,      ,    ,      ,    ,      ,2, 0.9500
   199,'1 ',   845.000,  -277.738,   277.738,  -277.738,1.00000,     0,  2004.000, 0.00000E+0, 8.00000E-1, 0.00000E+0, 0.00000E+0,1.00000,1,  100.0,  1800.000,     0.000,   1,1.0000,    ,      ,    ,      ,    ,      ,2, 0.9500
0 / END OF GENERATOR DATA, BEGIN BRANCH DATA
     2,     7,'1 ', 1.79000E-3, 1.98800E-2,   2.57600,    0.00,    0.00,    0.00,  0.00000,  0.00000,  0.00000,  0.00000,1,1,   0.00,   1,1.0000
     2,     7,'2 ', 1.79000E-3, 1.98800E-2,   2.57600,    0.00,    0.00,    0.00,  0.00000,  0.00000,  0.00000,  0.00000,1,1,   0.00,   1,1.0000
     4,    16,'1 ', 1.95400E-2, 2.00000E-1,   1.00000,    0.00,    0.00,    0.00,  0.00000,  0.00000,  0.00000,  0.00000,1,1,   0.00,   1,1.0000
     4,    16,'2 ', 1.95400E-2, 2.00000E-1,   1.00000,    0.00,    0.00,    0.00,  0.00000,  0.00000,  0.00000,  0.00000,1,1,   0.00,   1,1.0000
     4,   159,'1 ', 8.11000E-3, 1.36900E-1,   2.43480,    0.00,    0.00,    0.00,  0.00000,  0.00000,  0.00000,  0.00000,1,1,   0.00,   1,1.0000
     6,    27,'1 ', 0.00000E+0,-8.18000E-3,   0.00000,    0.00,    0.00,    0.00,  0.00000,  0.00000,  0.00000,  0.00000,1,1,   0.00,   1,1.0000
     6,    27,'2 ', 0.00000E+0,-8.18000E-3,   0.00000,    0.00,    0.00,    0.00,  0.00000,  0.00000,  0.00000,  0.00000,1,1,   0.00,   1,1.0000
     7,    16,'1 ', 1.00000E-3, 1.06000E-2,   0.04410,    0.00,    0.00,    0.00,  0.00000,  0.00000,  0.00000,  0.00000,1,1,   0.00,   1,1.0000
     7,    16,'2 ', 1.00000E-3, 1.06000E-2,   0.04410,    0.00,    0.00,    0.00,  0.00000,  0.00000,  0.00000,  0.00000,1,1,   0.00,   1,1.0000
     7,   162,'1 ', 4.80000E-3, 4.36000E-2,   0.70780,    0.00,    0.00,    0.00,  0.00000,  0.00000,  0.00000,  0.00000,1,1,   0.00,   1,1.0000
    11,    19,'1 ', 0.00000E+0,-6.34000E-3,   0.00000,    0.00,    0.00,    0.00,  0.00000,  0.00000,  0.00000,  0.00000,1,1,   0.00,   1,1.0000
    11,    21,'1 ', 0.00000E+0,-1.18800E-2,   0.00000,    0.00,    0.00,    0.00,  0.00000,  0.00000,  0.00000,  0.00000,1,1,   0.00,   1,1.0000
    11,   138,'1 ', 2.80000E-3, 2.11000E-2,   1.01940,    0.00,    0.00, 1630.00,  0.00000,  0.00000,  0.00000,  0.00000,1,1,   0.00,   1,1.0000
    13,    20,'1 ', 0.00000E+0,-6.34000E-3,   0.00000,    0.00,    0.00,    0.00,  0.00000,  0.00000,  0.00000,  0.00000,1,1,   0.00,   1,1.0000
    13,    23,'1 ', 0.00000E+0,-8.26000E-3,   0.00000,    0.00,    0.00,    0.00,  0.00000,  0.00000,  0.00000,  0.00000,1,1,   0.00,   1,1.0000
    13,    25,'1 ', 0.00000E+0,-1.79500E-2,   0.00000,    0.00,    0.00,    0.00,  0.00000,  0.00000,  0.00000,  0.00000,1,1,   0.00,   1,1.0000
    13,    28,'1 ', 0.00000E+0,-2.22400E-2,   0.00000,    0.00,    0.00,    0.00,  0.00000,  0.00000,  0.00000,  0.00000,1,1,   0.00,   1,1.0000
    13,    28,'2 ', 0.00000E+0,-2.22400E-2,   0.00000,    0.00,    0.00,    0.00,  0.00000,  0.00000,  0.00000,  0.00000,1,1,   0.00,   1,1.0000
    15,    18,'1 ', 4.00000E-4, 9.60000E-3,   0.90380,    0.00,    0.00,    0.00,  0.00000,  0.00000,  0.00000,  0.00000,1,1,   0.00,   1,1.0000
    15,    18,'2 ', 4.00000E-4, 9.60000E-3,   0.90380,    0.00,    0.00,    0.00,  0.00000,  0.00000,  0.00000,  0.00000,1,1,   0.00,   1,1.0000
    15,   135,'1 ', 2.59000E-3, 2.96700E-2,   2.15300,    0.00,    0.00, 1800.00,  0.00000,  0.00000,  0.00000,  0.00000,1,1,   0.00,   1,1.0000
    15,   135,'2 ', 2.59000E-3, 2.96700E-2,   2.15300,    0.00,    0.00, 1800.00,  0.00000,  0.00000,  0.00000,  0.00000,1,1,   0.00,   1,1.0000
    18,    22,'1 ', 0.00000E+0,-1.18800E-2,   0.00000,    0.00,    0.00,    0.00,  0.00000,  0.00000,  0.00000,  0.00000,1,1,   0.00,   1,1.0000
    18,    24,'1 ', 0.00000E+0,-8.26000E-3,   0.00000,    0.00,    0.00,    0.00,  0.00000,  0.00000,  0.00000,  0.00000,1,1,   0.00,   1,1.0000
    19,    20,'1 ', 7.70000E-4, 1.80400E-2,   1.39840,    0.00,    0.00,    0.00,  0.00000,  0.00000,  0.00000,  0.00000,1,1,   0.00,   1,1.0000
    21,    22,'1 ', 2.41000E-3, 5.86500E-2,   4.86560,    0.00,    0.00,    0.00,  0.00000,  0.00000,  0.00000,  0.00000,1,1,   0.00,   1,1.0000
    23,    24,'1 ', 1.79000E-3, 4.24400E-2,   3.39220,    0.00,    0.00,    0.00,  0.00000,  0.00000,  0.00000,  0.00000,1,1,   0.00,   1,1.0000
    25,    26,'1 ', 2.07000E-3, 4.95900E-2,   3.95160,    0.00,    0.00,    0.00,  0.00000,  0.00000,  0.00000,  0.00000,1,1,   0.00,   1,1.0000
    26,   138,'1 ', 0.00000E+0,-1.79500E-2,   0.00000,    0.00,    0.00,    0.00,  0.00000,  0.00000,  0.00000,  0.00000,1,1,   0.00,   1,1.0000
    27,    28,'1 ', 3.54000E-3, 8.37000E-2,   3.34460,    0.00,    0.00,    0.00,  0.00000,  0.00000,  0.00000,  0.00000,1,1,   0.00,   1,1.0000
    27,    28,'2 ', 3.54000E-3, 8.37000E-2,   3.34460,    0.00,    0.00,    0.00,  0.00000,  0.00000,  0.00000,  0.00000,1,1,   0.00,   1,1.0000
    30,    31,'1 ', 1.05000E-2, 2.10000E-1,   1.50600,    0.00,    0.00,    0.00,  0.00000,  0.00000,  0.00000,  0.00000,1,1,   0.00,   1,1.0000
    30,    31,'2 ', 1.05000E-2, 2.10000E-1,   1.50600,    0.00,    0.00,    0.00,  0.00000,  0.00000,  0.00000,  0.00000,1,1,   0.00,   1,1.0000
    30,    31,'3 ', 1.05000E-2, 2.10000E-1,   1.50600,    0.00,    0.00,    0.00,  0.00000,  0.00000,  0.00000,  0.00000,1,1,   0.00,   1,1.0000
    30,    79,'1 ', 1.66000E-3, 4.78000E-2,   1.65000,    0.00,    0.00,    0.00,  0.00000,  0.00000,  0.00000,  0.00000,1,1,   0.00,   1,1.0000
    30,    79,'2 ', 1.66000E-3, 4.78000E-2,   1.65000,    0.00,    0.00,    0.00,  0.00000,  0.00000,  0.00000,  0.00000,1,1,   0.00,   1,1.0000
    32,    33,'1 ', 4.00000E-3, 4.00000E-2,   0.80000,    0.00,    0.00,    0.00,  0.00000,  0.00000,  0.00000,  0.00000,1,1,   0.00,   1,1.0000
    32,    33,'2 ', 4.00000E-3, 4.00000E-2,   0.80000,    0.00,    0.00,    0.00,  0.00000,  0.00000,  0.00000,  0.00000,1,1,   0.00,   1,1.0000
    36,    37,'1 ', 7.40000E-4, 1.86100E-2,   1.40260,    0.00,    0.00,    0.00,  0.00000,  0.00000,  0.00000,  0.00000,1,1,   0.00,   1,1.0000
    36,    55,'1 ', 8.20000E-4, 1.66800E-2,   1.18800,    0.00,    0.00,    0.00,  0.00000,  0.00000,  0.00000,  0.00000,1,1,   0.00,   1,1.0000
    36,    63,'1 ', 0.00000E+0, 1.59000E-3,   0.12002,    0.00,    0.00,    0.00,  0.00000,  0.00000,  0.00000,  0.00000,1,1,   0.00,   1,1.0000
    36,    63,'2 ', 0.00000E+0, 1.59000E-3,   0.12002,    0.00,    0.00,    0.00,  0.00000,  0.00000,  0.00000,  0.00000,1,1,   0.00,   1,1.0000
    38,    45,'1 ', 2.21000E-3, 3.34600E-2,   0.07338,    0.00,    0.00,    0.00,  0.00000,  0.00000,  0.00000,  0.00000,1,1,   0.00,   1,1.0000
    38,    47,'1 ', 2.90000E-3, 3.80000E-2,   0.08240,    0.00,    0.00,    0.00,  0.00000,  0.00000,  0.00000,  0.00000,1,1,   0.00,   1,1.0000
    38,    58,'1 ', 3.09000E-3, 4.67700E-2,   0.10080,    0.00,    0.00,    0.00,  0.00000,  0.00000,  0.00000,  0.00000,1,1,   0.00,   1,1.0000
    38,    59,'1 ', 2.26000E-3, 3.42200E-2,   0.07506,    0.00,    0.00,    0.00,  0.00000,  0.00000,  0.00000,  0.00000,1,1,   0.00,   1,1.0000
    40,    54,'1 ', 4.70000E-4, 7.23000E-3,   0.01624,    0.00,    0.00,    0.00,  0.00000,  0.00000,  0.00000,  0.00000,1,1,   0.00,   1,1.0000
    40,    57,'1 ', 3.50000E-4, 5.36000E-3,   0.01204,    0.00,    0.00,    0.00,  0.00000,  0.00000,  0.00000,  0.00000,1,1,   0.00,   1,1.0000
    41,    49,'1 ', 2.20000E-3, 3.42200E-2,   0.07716,    0.00,    0.00,    0.00,  0.00000,  0.00000,  0.00000,  0.00000,1,1,   0.00,   1,1.0000
    41,    49,'2 ', 2.38000E-3, 3.66900E-2,   0.08284,    0.00,    0.00,    0.00,  0.00000,  0.00000,  0.00000,  0.00000,1,1,   0.00,   1,1.0000
    41,    56,'1 ', 2.01000E-3, 3.07400E-2,   0.06886,    0.00,    0.00,    0.00,  0.00000,  0.00000,  0.00000,  0.00000,1,1,   0.00,   1,1.0000
    41,    57,'1 ', 2.81000E-3, 4.29600E-2,   0.09648,    0.00,    0.00,    0.00,  0.00000,  0.00000,  0.00000,  0.00000,1,1,   0.00,   1,1.0000
    43,   159,'1 ', 1.80000E-3, 2.45000E-2,   0.43920,    0.00,    0.00,    0.00,  0.00000,  0.00000,  0.00000,  0.00000,1,1,   0.00,   1,1.0000
    43,   159,'2 ', 1.80000E-3, 2.45000E-2,   0.43920,    0.00,    0.00,    0.00,  0.00000,  0.00000,  0.00000,  0.00000,1,1,   0.00,   1,1.0000
    45,    47,'1 ', 2.90000E-4, 4.34000E-3,   0.00950,    0.00,    0.00,    0.00,  0.00000,  0.00000,  0.00000,  0.00000,1,1,   0.00,   1,1.0000
    47,    54,'1 ', 2.29000E-3, 1.58300E-2,   0.03060,    0.00,    0.00,    0.00,  0.00000,  0.00000,  0.00000,  0.00000,1,1,   0.00,   1,1.0000
    47,    54,'2 ', 2.29000E-3, 1.58300E-2,   0.03060,    0.00,    0.00,    0.00,  0.00000,  0.00000,  0.00000,  0.00000,1,1,   0.00,   1,1.0000
    47,    58,'1 ', 1.41000E-3, 9.67000E-3,   0.01940,    0.00,    0.00,    0.00,  0.00000,  0.00000,  0.00000,  0.00000,1,1,   0.00,   1,1.0000
    47,    58,'2 ', 1.41000E-3, 9.67000E-3,   0.01940,    0.00,    0.00,    0.00,  0.00000,  0.00000,  0.00000,  0.00000,1,1,   0.00,   1,1.0000
    47,    58,'3 ', 1.61000E-3, 9.71000E-3,   0.01928,    0.00,    0.00,    0.00,  0.00000,  0.00000,  0.00000,  0.00000,1,1,   0.00,   1,1.0000
    47,    58,'4 ', 1.61000E-3, 9.71000E-3,   0.01928,    0.00,    0.00,    0.00,  0.00000,  0.00000,  0.00000,  0.00000,1,1,   0.00,   1,1.0000
    47,    59,'1 ', 2.70000E-4, 3.93000E-3,   0.00918,    0.00,    0.00,    0.00,  0.00000,  0.00000,  0.00000,  0.00000,1,1,   0.00,   1,1.0000
    47,    59,'2 ', 2.70000E-4, 3.93000E-3,   0.00918,    0.00,    0.00,    0.00,  0.00000,  0.00000,  0.00000,  0.00000,1,1,   0.00,   1,1.0000
    47,    59,'3 ', 2.70000E-4, 3.93000E-3,   0.00918,    0.00,    0.00,    0.00,  0.00000,  0.00000,  0.00000,  0.00000,1,1,   0.00,   1,1.0000
    47,    61,'1 ', 1.38000E-3, 1.11600E-2,   0.02470,    0.00,    0.00,    0.00,  0.00000,  0.00000,  0.00000,  0.00000,1,1,   0.00,   1,1.0000
    47,    61,'2 ', 1.38000E-3, 1.11600E-2,   0.02470,    0.00,    0.00,    0.00,  0.00000,  0.00000,  0.00000,  0.00000,1,1,   0.00,   1,1.0000
    48,    63,'1 ', 8.30000E-4, 1.88400E-2,   1.66670,    0.00,    0.00,    0.00,  0.00000,  0.00000,  0.00000,  0.00000,1,1,   0.00,   1,1.0000
    49,    56,'1 ', 3.70000E-4, 3.66000E-3,   0.00830,    0.00,    0.00,    0.00,  0.00000,  0.00000,  0.00000,  0.00000,1,1,   0.00,   1,1.0000
    49,    57,'1 ', 5.50000E-4, 5.86000E-3,   0.01246,    0.00,    0.00,    0.00,  0.00000,  0.00000,  0.00000,  0.00000,1,1,   0.00,   1,1.0000
    51,    62,'1 ', 1.07000E-2, 7.90500E-2,   0.36670,    0.00,    0.00,    0.00,  0.00000,  0.00000,  0.00000,  0.00000,1,1,   0.00,   1,1.0000
    52,    62,'1 ', 1.07000E-2, 7.90500E-2,   0.36670,    0.00,    0.00,    0.00,  0.00000,  0.00000,  0.00000,  0.00000,1,1,   0.00,   1,1.0000
    53,    56,'1 ', 7.30000E-4, 1.02500E-2,   0.02558,    0.00,    0.00,    0.00,  0.00000,  0.00000,  0.00000,  0.00000,1,1,   0.00,   1,1.0000
    53,    56,'2 ', 7.30000E-4, 1.02500E-2,   0.02558,    0.00,    0.00,    0.00,  0.00000,  0.00000,  0.00000,  0.00000,1,1,   0.00,   1,1.0000
    54,    57,'1 ', 1.19000E-3, 1.24400E-2,   0.02798,    0.00,    0.00,    0.00,  0.00000,  0.00000,  0.00000,  0.00000,1,1,   0.00,   1,1.0000
    54,    57,'2 ', 1.19000E-3, 1.24400E-2,   0.02798,    0.00,    0.00,    0.00,  0.00000,  0.00000,  0.00000,  0.00000,1,1,   0.00,   1,1.0000
    54,    61,'1 ', 1.28000E-3, 9.79000E-3,   0.02120,    0.00,    0.00,    0.00,  0.00000,  0.00000,  0.00000,  0.00000,1,1,   0.00,   1,1.0000
    56,    57,'1 ', 1.10000E-3, 1.18900E-2,   0.02514,    0.00,    0.00,    0.00,  0.00000,  0.00000,  0.00000,  0.00000,1,1,   0.00,   1,1.0000
    60,   136,'1 ', 1.40000E-3, 2.64000E-2,   0.10200,    0.00,    0.00, 3070.00,  0.00000,  0.00000,  0.00000,  0.00000,1,1,   0.00,   1,1.0000
    60,   149,'1 ', 6.50000E-4, 1.18700E-2,   0.04672,    0.00,    0.00, 3070.00,  0.00000,  0.00000,  0.00000,  0.00000,1,1,   0.00,   1,1.0000
    60,   149,'2 ', 6.50000E-4, 1.18700E-2,   0.04672,    0.00,    0.00, 3070.00,  0.00000,  0.00000,  0.00000,  0.00000,1,1,   0.00,   1,1.0000
    63,   138,'1 ', 1.79000E-3, 2.52400E-2,   0.53546,    0.00,    0.00,    0.00,  0.00000,  0.00000,  0.00000,  0.00000,1,1,   0.00,   1,1.0000
    63,   138,'2 ', 1.79000E-3, 2.52400E-2,   0.53546,    0.00,    0.00,    0.00,  0.00000,  0.00000,  0.00000,  0.00000,1,1,   0.00,   1,1.0000
    63,   141,'1 ', 2.00000E-4, 4.10000E-3,   0.29620,    0.00,    0.00,    0.00,  0.00000,  0.00000,  0.00000,  0.00000,1,1,   0.00,   1,1.0000
    65,    77,'1 ', 5.60000E-3, 5.92000E-1,   0.61000,    0.00,    0.00,    0.00,  0.00000,  0.00000,  0.00000,  0.00000,1,1,   0.00,   1,1.0000
    65,    77,'2 ', 5.60000E-3, 5.92000E-1,   0.61000,    0.00,    0.00,    0.00,  0.00000,  0.00000,  0.00000,  0.00000,1,1,   0.00,   1,1.0000
    65,    77,'3 ', 5.60000E-3, 5.92000E-1,   0.61000,    0.00,    0.00,    0.00,  0.00000,  0.00000,  0.00000,  0.00000,1,1,   0.00,   1,1.0000
    65,    77,'4 ', 5.60000E-3, 5.92000E-1,   0.61000,    0.00,    0.00,    0.00,  0.00000,  0.00000,  0.00000,  0.00000,1,1,   0.00,   1,1.0000
    65,    77,'5 ', 5.60000E-3, 5.92000E-1,   0.61000,    0.00,    0.00,    0.00,  0.00000,  0.00000,  0.00000,  0.00000,1,1,   0.00,   1,1.0000
    65,    77,'6 ', 5.60000E-3, 5.92000E-1,   0.61000,    0.00,    0.00,    0.00,  0.00000,  0.00000,  0.00000,  0.00000,1,1,   0.00,   1,1.0000
    65,    77,'7 ', 5.60000E-3, 5.92000E-1,   0.61000,    0.00,    0.00,    0.00,  0.00000,  0.00000,  0.00000,  0.00000,1,1,   0.00,   1,1.0000
    65,    77,'8 ', 5.60000E-3, 5.92000E-1,   0.61000,    0.00,    0.00,    0.00,  0.00000,  0.00000,  0.00000,  0.00000,1,1,   0.00,   1,1.0000
    67,    70,'1 ', 6.00000E-5, 1.31000E-3,   0.00378,    0.00,    0.00, 3020.00,  0.00000,  0.00000,  0.00000,  0.00000,1,1,   0.00,   1,1.0000
    67,    70,'2 ', 6.00000E-5, 1.16000E-3,   0.00332,    0.00,    0.00, 3020.00,  0.00000,  0.00000,  0.00000,  0.00000,1,1,   0.00,   1,1.0000
    68,    71,'1 ', 1.00000E-5, 3.00000E-4,   0.01434,    0.00,    0.00, 3450.00,  0.00000,  0.00000,  0.00000,  0.00000,1,1,   0.00,   1,1.0000
    68,    71,'2 ', 1.00000E-5, 3.00000E-4,   0.01844,    0.00,    0.00, 3450.00,  0.00000,  0.00000,  0.00000,  0.00000,1,1,   0.00,   1,1.0000
    68,    75,'1 ', 2.30000E-4, 4.51000E-3,   0.33320,    0.00,    0.00, 2175.00,  0.00000,  0.00000,  0.00000,  0.00000,1,1,   0.00,   1,1.0000
    68,    75,'2 ', 2.00000E-4, 4.46000E-3,   0.30500,    0.00,    0.00, 2175.00,  0.00000,  0.00000,  0.00000,  0.00000,1,1,   0.00,   1,1.0000
    72,    74,'1 ', 7.16000E-2, 5.62000E-2,   0.92000,    0.00,    0.00,    0.00,  0.00000,  0.00000,  0.00000,  0.00000,1,1,   0.00,   1,1.0000
    72,    74,'2 ', 7.16000E-2, 5.62000E-2,   0.92000,    0.00,    0.00,    0.00,  0.00000,  0.00000,  0.00000,  0.00000,1,1,   0.00,   1,1.0000
    72,    74,'3 ', 7.16000E-2, 5.62000E-2,   0.92000,    0.00,    0.00,    0.00,  0.00000,  0.00000,  0.00000,  0.00000,1,1,   0.00,   1,1.0000
    72,    74,'4 ', 7.16000E-2, 5.62000E-2,   0.92000,    0.00,    0.00,    0.00,  0.00000,  0.00000,  0.00000,  0.00000,1,1,   0.00,   1,1.0000
    73,    77,'1 ', 1.13000E-3, 2.06900E-2,   1.85530,    0.00,    0.00,    0.00,  0.00000,  0.00000,  0.00000,  0.00000,1,1,   0.00,   1,1.0000
    74,    75,'1 ', 3.92000E-3, 6.60800E-2,   0.94000,    0.00,    0.00,    0.00,  0.00000,  0.00000,  0.00000,  0.00000,1,1,   0.00,   1,1.0000
    74,    75,'2 ', 3.92000E-3, 6.60800E-2,   0.94000,    0.00,    0.00,    0.00,  0.00000,  0.00000,  0.00000,  0.00000,1,1,   0.00,   1,1.0000
    74,    77,'1 ', 5.68000E-3, 9.32000E-2,   0.47000,    0.00,    0.00,    0.00,  0.00000,  0.00000,  0.00000,  0.00000,1,1,   0.00,   1,1.0000
    74,    77,'2 ', 5.68000E-3, 9.32000E-2,   0.47000,    0.00,    0.00,    0.00,  0.00000,  0.00000,  0.00000,  0.00000,1,1,   0.00,   1,1.0000
    74,    77,'3 ', 5.68000E-3, 9.32000E-2,   0.47000,    0.00,    0.00,    0.00,  0.00000,  0.00000,  0.00000,  0.00000,1,1,   0.00,   1,1.0000
    74,    77,'4 ', 5.68000E-3, 9.32000E-2,   0.47000,    0.00,    0.00,    0.00,  0.00000,  0.00000,  0.00000,  0.00000,1,1,   0.00,   1,1.0000
    75,    77,'1 ', 1.20000E-3, 2.31600E-2,   1.71520,    0.00,    0.00,    0.00,  0.00000,  0.00000,  0.00000,  0.00000,1,1,   0.00,   1,1.0000
    75,    77,'2 ', 3.00000E-4, 2.00000E-2,   3.60000,    0.00,    0.00,    0.00,  0.00000,  0.00000,  0.00000,  0.00000,1,1,   0.00,   1,1.0000
    75,    81,'1 ', 6.30000E-4, 1.41200E-2,   1.09760,    0.00,    0.00, 3450.00,  0.00000,  0.00000,  0.00000,  0.00000,1,1,   0.00,   1,1.0000
    75,    81,'2 ', 1.09000E-3, 2.40800E-2,   1.55540,    0.00,    0.00, 3020.00,  0.00000,  0.00000,  0.00000,  0.00000,1,1,   0.00,   1,1.0000
    75,    81,'3 ', 1.08000E-3, 2.40900E-2,   1.55350,    0.00,    0.00, 3020.00,  0.00000,  0.00000,  0.00000,  0.00000,1,1,   0.00,   1,1.0000
    77,    79,'1 ', 4.00000E-4, 1.62000E-2,   0.65000,    0.00,    0.00,    0.00,  0.00000,  0.00000,  0.00000,  0.00000,1,1,   0.00,   1,1.0000
    77,    79,'2 ', 4.00000E-4, 1.62000E-2,   0.65000,    0.00,    0.00,    0.00,  0.00000,  0.00000,  0.00000,  0.00000,1,1,   0.00,   1,1.0000
    77,    79,'3 ', 4.00000E-4, 1.62000E-2,   0.65000,    0.00,    0.00,    0.00,  0.00000,  0.00000,  0.00000,  0.00000,1,1,   0.00,   1,1.0000
    77,    79,'4 ', 4.00000E-4, 1.62000E-2,   0.65000,    0.00,    0.00,    0.00,  0.00000,  0.00000,  0.00000,  0.00000,1,1,   0.00,   1,1.0000
    80,    98,'1 ', 5.28000E-3, 1.07120E-1,   2.64535,    0.00,    0.00, 3600.00,  0.00000,  0.00000,  0.00000,  0.00000,1,1,   0.00,   1,1.0000
    80,    98,'2 ', 5.28000E-3, 1.07120E-1,   2.64535,    0.00,    0.00, 3600.00,  0.00000,  0.00000,  0.00000,  0.00000,1,1,   0.00,   1,1.0000
    80,   179,'1 ', 0.00000E+0,-5.33400E-2,   0.00000,    0.00,    0.00, 1732.00,  0.00000,  0.00000,  0.00000,  0.00000,1,1,   0.00,   1,1.0000
    80,   179,'2 ', 0.00000E+0,-5.33400E-2,   0.00000,    0.00,    0.00, 1732.00,  0.00000,  0.00000,  0.00000,  0.00000,1,1,   0.00,   1,1.0000
    81,    86,'1 ', 4.10000E-4, 7.37000E-3,   0.72694,    0.00,    0.00, 3450.00,  0.00000,  0.00000,  0.00000,  0.00000,1,1,   0.00,   1,1.0000
    81,    90,'1 ', 6.60000E-4, 1.26600E-2,   0.95976,    0.00,    0.00, 3020.00,  0.00000,  0.00000,  0.00000,  0.00000,1,1,   0.00,   1,1.0000
    81,    94,'1 ', 6.60000E-4, 1.26600E-2,   0.95976,    0.00,    0.00, 3020.00,  0.00000,  0.00000,  0.00000,  0.00000,1,1,   0.00,   1,1.0000
    82,    88,'1 ', 7.20000E-4, 1.38200E-2,   1.27570,    0.00,    0.00, 3600.00,  0.00000,  0.00000,  0.00000,  0.00000,1,1,   0.00,   1,1.0000
    82,    93,'1 ', 7.80000E-4, 1.50200E-2,   1.13810,    0.00,    0.00, 3020.00,  0.00000,  0.00000,  0.00000,  0.00000,1,1,   0.00,   1,1.0000
    82,    97,'1 ', 7.40000E-4, 1.41300E-2,   1.06630,    0.00,    0.00, 3020.00,  0.00000,  0.00000,  0.00000,  0.00000,1,1,   0.00,   1,1.0000
    82,   167,'1 ', 0.00000E+0,-7.20000E-3,   0.00000,    0.00,    0.00, 1800.00,  0.00000,  0.00000,  0.00000,  0.00000,1,1,   0.00,   1,1.0000
    82,   169,'1 ', 0.00000E+0,-8.64000E-3,   0.00000,    0.00,    0.00, 1800.00,  0.00000,  0.00000,  0.00000,  0.00000,1,1,   0.00,   1,1.0000
    82,   171,'1 ', 0.00000E+0,-1.00000E-2,   0.00000,    0.00,    0.00,    0.00,  0.00000,  0.00000,  0.00000,  0.00000,1,1,   0.00,   1,1.0000
    83,    98,'1 ', 0.00000E+0,-5.33400E-2,   0.00000,    0.00,    0.00, 1732.00,  0.00000,  0.00000,  0.00000,  0.00000,1,1,   0.00,   1,1.0000
    83,    98,'2 ', 0.00000E+0,-5.33400E-2,   0.00000,    0.00,    0.00, 1732.00,  0.00000,  0.00000,  0.00000,  0.00000,1,1,   0.00,   1,1.0000
    84,   155,'1 ', 6.20000E-3, 6.73000E-2,   1.11560,    0.00,    0.00,    0.00,  0.00000,  0.00000,  0.00000,  0.00000,1,1,   0.00,   1,1.0000
    84,   155,'2 ', 6.20000E-3, 6.73000E-2,   1.11560,    0.00,    0.00,    0.00,  0.00000,  0.00000,  0.00000,  0.00000,1,1,   0.00,   1,1.0000
    85,    87,'1 ', 6.00000E-4, 1.03600E-2,   1.01460,    0.00,    0.00, 3450.00,  0.00000,  0.00000,  0.00000,  0.00000,1,1,   0.00,   1,1.0000
    85,    89,'1 ', 1.20000E-4, 2.38000E-3,   0.21926,    0.00,    0.00, 3600.00,  0.00000,  0.00000,  0.00000,  0.00000,1,1,   0.00,   1,1.0000
    85,   179,'1 ', 2.44000E-3, 4.74600E-2,   1.10355,    0.00,    0.00, 3600.00,  0.00000,  0.00000,  0.00000,  0.00000,1,1,   0.00,   1,1.0000
    85,   179,'2 ', 2.44000E-3, 4.74600E-2,   1.10355,    0.00,    0.00, 3600.00,  0.00000,  0.00000,  0.00000,  0.00000,1,1,   0.00,   1,1.0000
...